Infrared Spectrum: Glucose
CAS: 50-99-7
State: Solid (powder)
WAVENUMBERS	TRANSMITTANCE
41.67	1.04778
43.33	1.00879
45	0.948105
46.67	0.870659
48.33	0.860958
50	0.931386
51.67	0.972319
53.33	0.965729
55	0.940831
56.67	0.923574
58.33	0.918773
60	0.910109
61.67	0.893357
63.33	0.875179
65	0.857303
66.67	0.828244
68.33	0.799822
70	0.786909
71.67	0.789479
73.33	0.779583
75	0.762141
76.67	0.747258
78.33	0.726445
80	0.68955
81.67	0.64103
83.33	0.597612
85	0.572934
86.67	0.545015
88.33	0.517224
90	0.550586
91.67	0.616945
93.33	0.666892
95	0.664488
96.67	0.623269
98.33	0.598654
100	0.638072
101.67	0.699617
103.33	0.712284
105	0.693646
106.67	0.666609
108.33	0.64384
110	0.615634
111.67	0.608149
113.33	0.624944
115	0.635549
116.67	0.629604
118.33	0.607773
120	0.574266
121.67	0.529528
123.33	0.490097
125	0.461163
126.67	0.45874
128.33	0.497954
130	0.533808
131.67	0.554577
133.33	0.571429
135	0.584171
136.67	0.575974
138.33	0.549004
140	0.524092
141.67	0.510155
143.33	0.496985
145	0.468626
146.67	0.430726
148.33	0.380488
150	0.318184
151.67	0.279721
153.33	0.308612
155	0.368855
156.67	0.434767
158.33	0.485061
160	0.512543
161.67	0.518171
163.33	0.510784
165	0.495826
166.67	0.477019
168.33	0.45576
170	0.42981
171.66	0.406402
173.33	0.386386
175	0.359856
176.66	0.331082
178.33	0.308651
180	0.297699
181.66	0.296119
183.33	0.307077
185	0.32546
186.66	0.340619
188.33	0.354323
190	0.364945
191.66	0.367049
193.33	0.360755
195	0.351935
196.66	0.344177
198.33	0.33434
200	0.321773
201.66	0.303618
203.33	0.292371
205	0.29454
206.66	0.293116
208.33	0.284781
210	0.28092
211.66	0.274127
213.33	0.260261
215	0.243467
216.66	0.227507
218.33	0.210509
220	0.195217
221.66	0.185116
223.33	0.184471
225	0.189693
226.66	0.202573
228.33	0.228488
230	0.257035
231.66	0.284459
233.33	0.312763
235	0.340263
236.66	0.364317
238.33	0.382189
240	0.393932
241.66	0.400502
243.33	0.40283
245	0.400644
246.66	0.39654
248.33	0.393878
250	0.393062
251.66	0.385234
253.33	0.368855
255	0.35515
256.66	0.350997
258.33	0.345973
260	0.343002
261.66	0.34263
263.33	0.341466
265	0.336395
266.66	0.327531
268.33	0.319168
270	0.314255
271.66	0.320118
273.33	0.338005
275	0.356755
276.66	0.364661
278.33	0.35998
280	0.349788
281.66	0.33455
283.33	0.314713
285	0.296922
286.66	0.282744
288.33	0.280002
290	0.294122
291.66	0.319274
293.33	0.344003
295	0.36349
296.66	0.377578
298.33	0.386745
300	0.389846
301.66	0.394628
303.33	0.413501
305	0.441831
306.66	0.457116
308.33	0.461643
310	0.460584
311.66	0.454972
313.33	0.448034
315	0.441079
316.66	0.43367
318.33	0.42596
320	0.415872
321.66	0.401676
323.33	0.380811
325	0.359383
326.66	0.343538
328.33	0.33884
330	0.350115
331.66	0.361155
333.33	0.362865
335	0.356275
336.66	0.346266
338.33	0.333281
340	0.317207
341.66	0.300702
343.33	0.287484
345	0.278549
346.66	0.274916
348.33	0.275316
350	0.27863
351.66	0.283944
353.33	0.289827
355	0.294349
356.66	0.296349
358.33	0.291417
360	0.28384
361.66	0.276256
363.33	0.26821
365	0.257957
366.66	0.244483
368.33	0.230445
370	0.215588
371.66	0.199456
373.33	0.180367
375	0.160548
376.66	0.152349
378.33	0.166646
380	0.193401
381.66	0.209441
383.33	0.213317
385	0.210275
386.66	0.203356
388.33	0.192145
390	0.180598
391.66	0.188728
393.33	0.223484
395	0.25445
396.66	0.260628
398.33	0.248931
